Circuit: * D:\Users\Shozaburo\Docuement\git\LTSpice\DCDC\ErrorAmp2.asc

.step r1=8200
.step r1=100000
.step r1=1e+007

Date: Thu Jan 18 22:52:17 2018
Total elapsed time: 0.073 seconds.

tnom = 27
temp = 27
method = trap
totiter = 0
traniter = 0
tranpoints = 0
accept = 0
rejected = 0
matrix size = 12
fillins = 9
solver = Normal

