Circuit: * D:\Users\Shozaburo\Docuement\git\LTSpice\DCDC\ErrorAmp.asc

.step r1=8200
.step r1=100000
.step r1=1e+007

Date: Thu Jan 18 21:49:43 2018
Total elapsed time: 0.066 seconds.

tnom = 27
temp = 27
method = trap
totiter = 0
traniter = 0
tranpoints = 0
accept = 0
rejected = 0
matrix size = 14
fillins = 10
solver = Normal

