Circuit: * D:\Users\Shozaburo\Docuement\git\LTSpice\DCDC\ErrorAmp.asc


Date: Thu Jan 18 11:14:06 2018
Total elapsed time: 0.027 seconds.

tnom = 27
temp = 27
method = trap
totiter = 0
traniter = 0
tranpoints = 0
accept = 0
rejected = 0
matrix size = 7
fillins = 2
solver = Normal

