Circuit: * D:\Users\Shozaburo\Docuement\git\LTSpice\DCDC\RC_Filter.asc


Date: Thu Jan 18 16:26:33 2018
Total elapsed time: 0.033 seconds.

tnom = 27
temp = 27
method = trap
totiter = 0
traniter = 0
tranpoints = 0
accept = 0
rejected = 0
matrix size = 5
fillins = 0
solver = Normal

