Circuit: * D:\Users\Shozaburo\Docuement\git\LTSpice\Basic\VoltageDependentVoltageSouce.asc

Direct Newton iteration for .op point succeeded.

Date: Thu Jan 18 11:05:31 2018
Total elapsed time: 0.052 seconds.

tnom = 27
temp = 27
method = modified trap
totiter = 2099
traniter = 2096
tranpoints = 1049
accept = 1049
rejected = 0
matrix size = 4
fillins = 0
solver = Normal
Matrix Compiler1: off  [0.0]/0.0/0.0
Matrix Compiler2: off  [0.0]/0.6/0.1

