Circuit: * D:\Users\Shozaburo\Docuement\git\LTSpice\OpAmp\NonInvAmp.asc

Direct Newton iteration for .op point succeeded.

Date: Tue Jan 23 15:09:42 2018
Total elapsed time: 0.068 seconds.

tnom = 27
temp = 27
method = trap
totiter = 4
traniter = 0
tranpoints = 0
accept = 0
rejected = 0
matrix size = 32
fillins = 4
solver = Normal
Matrix Compiler1:      95 opcodes
Matrix Compiler2: 3.12 KB object code size
